Info: SIMULATION PARAMETERS:
Info: TIMESTEP               2
Info: NUMBER OF STEPS        0
Info: STEPS PER CYCLE        10
Info: PERIODIC CELL BASIS 1  90 0 0
Info: PERIODIC CELL BASIS 2  0 90 0
Info: PERIODIC CELL BASIS 3  0 0 90
Info: PERIODIC CELL CENTER   0 0 0
Info: WRAPPING ALL CLUSTERS AROUND PERIODIC BOUNDARIES ON OUTPUT.
Info: FIRST LDB TIMESTEP     50
Info: LAST LDB TIMESTEP     -1
Info: HOM BACKGROUND SCALING 1
Info: PME BACKGROUND SCALING 1
Info: MIN ATOMS PER PATCH    40
Info: INITIAL TEMPERATURE    0
Info: CENTER OF MASS MOVING INITIALLY? NO
Info: DIELECTRIC             1
Info: EXCLUDE                SCALED ONE-FOUR
Info: 1-4 ELECTROSTATICS SCALED BY 1
Info: MODIFIED 1-4 VDW PARAMETERS WILL BE USED
Info: DCD FILENAME           ./minimize_00_o.dcd
Info: DCD FREQUENCY          1000
Info: DCD FIRST STEP         1000
Info: DCD FILE WILL CONTAIN UNIT CELL DATA
Info: XST FILENAME           ./minimize_00_o.xst
Info: XST FREQUENCY          1000
Info: NO VELOCITY DCD OUTPUT
Info: NO FORCE DCD OUTPUT
Info: OUTPUT FILENAME        ./minimize_00_o
Info: BINARY OUTPUT FILES WILL BE USED
Info: RESTART FILENAME       ./minimize_00
Info: RESTART FREQUENCY      1000
Info: BINARY RESTART FILES WILL BE USED
Info: SWITCHING ACTIVE
Info: SWITCHING ON           10
Info: SWITCHING OFF          12
Info: PAIRLIST DISTANCE      14
Info: PAIRLIST SHRINK RATE   0.01
Info: PAIRLIST GROW RATE     0.01
Info: PAIRLIST TRIGGER       0.3
Info: PAIRLISTS PER CYCLE    2
Info: PAIRLISTS ENABLED
Info: MARGIN                 5
Info: HYDROGEN GROUP CUTOFF  2.5
Info: PATCH DIMENSION        21.5
Info: ENERGY OUTPUT STEPS    1000
Info: CROSSTERM ENERGY INCLUDED IN DIHEDRAL
Info: TIMING OUTPUT STEPS    10000
Info: PRESSURE OUTPUT STEPS  1000
Info: HARMONIC CONSTRAINTS ACTIVE
Info: HARMONIC CONS EXP      2
Info: LANGEVIN DYNAMICS ACTIVE
Info: LANGEVIN TEMPERATURE   300
Info: LANGEVIN USING BBK INTEGRATOR
Info: LANGEVIN DAMPING COEFFICIENT IS 5 INVERSE PS
Info: LANGEVIN DYNAMICS NOT APPLIED TO HYDROGENS
Info: VELOCITY REASSIGNMENT FREQ  100
Info: VELOCITY REASSIGNMENT TEMP  0
Info: VELOCITY REASSIGNMENT INCR  1
Info: VELOCITY REASSIGNMENT HOLD  300
Info: LANGEVIN PISTON PRESSURE CONTROL ACTIVE
Info:        TARGET PRESSURE IS 1.0265 BAR
Info:     OSCILLATION PERIOD IS 100 FS
Info:             DECAY TIME IS 50 FS
Info:     PISTON TEMPERATURE IS 300 K
Info:       PRESSURE CONTROL IS GROUP-BASED
Info:    INITIAL STRAIN RATE IS 0 0 0
Info:       CELL FLUCTUATION IS ISOTROPIC
Info: PARTICLE MESH EWALD (PME) ACTIVE
Info: PME TOLERANCE               1e-05
Info: PME EWALD COEFFICIENT       0.226635
Info: PME INTERPOLATION ORDER     4
Info: PME GRID DIMENSIONS         96 96 96
Info: PME MAXIMUM GRID SPACING    1
Info: FULL ELECTROSTATIC EVALUATION FREQUENCY      2
Info: USING VERLET I (r-RESPA) MTS SCHEME.
Info: C1 SPLITTING OF LONG RANGE ELECTROSTATICS
Info: PLACING ATOMS IN PATCHES BY HYDROGEN GROUPS
Info: RIGID BONDS TO HYDROGEN : ALL
Info:         ERROR TOLERANCE : 5e-05
Info:          MAX ITERATIONS : 100
Info: RIGID WATER USING SETTLE ALGORITHM
Info: RANDOM NUMBER SEED     1652953410
Info: USE HYDROGEN BONDS?    NO
Info: COORDINATE PDB         ./ionized.pdb
Info: STRUCTURE FILE         ./ionized.psf
Info: PARAMETER file: CHARMM format!
Info: PARAMETERS             toppar/par_all36m_prot.prm
Info: PARAMETERS             toppar/par_all36_na.prm
Info: PARAMETERS             toppar/par_all36_carb.prm
Info: PARAMETERS             toppar/par_all36_lipid.prm
Info: PARAMETERS             toppar/par_all36_cgenff.prm
Info: PARAMETERS             toppar/par_interface.prm
Info: PARAMETERS             akg.prm
Info: PARAMETERS             toppar/toppar_all36_moreions.str
Info: PARAMETERS             toppar/toppar_all36_nano_lig.str
Info: PARAMETERS             toppar/toppar_all36_nano_lig_patch.str
Info: PARAMETERS             toppar/toppar_all36_synthetic_polymer.str
Info: PARAMETERS             toppar/toppar_all36_synthetic_polymer_patch.str
Info: PARAMETERS             toppar/toppar_all36_polymer_solvent.str
Info: PARAMETERS             toppar/toppar_water_ions.str
Info: PARAMETERS             toppar/toppar_dum_noble_gases.str
Info: PARAMETERS             toppar/toppar_ions_won.str
Info: PARAMETERS             toppar/toppar_all36_prot_arg0.str
Info: PARAMETERS             toppar/toppar_all36_prot_c36m_d_aminoacids.str
Info: PARAMETERS             toppar/toppar_all36_prot_fluoro_alkanes.str
Info: PARAMETERS             toppar/toppar_all36_prot_heme.str
Info: PARAMETERS             toppar/toppar_all36_prot_na_combined.str
Info: PARAMETERS             toppar/toppar_all36_prot_retinol.str
Info: PARAMETERS             toppar/toppar_all36_prot_model.str
Info: PARAMETERS             toppar/toppar_all36_prot_modify_res.str
Info: PARAMETERS             toppar/toppar_all36_na_nad_ppi.str
Info: PARAMETERS             toppar/toppar_all36_na_rna_modified.str
Info: PARAMETERS             toppar/toppar_all36_lipid_sphingo.str
Info: PARAMETERS             toppar/toppar_all36_lipid_archaeal.str
Info: PARAMETERS             toppar/toppar_all36_lipid_bacterial.str
Info: USING ARITHMETIC MEAN TO COMBINE L-J SIGMA PARAMETERS
Info: SUMMARY OF PARAMETERS:
Info: 1454 BONDS
Info: 5000 ANGLES
Info: 14891 DIHEDRAL
Info: 344 IMPROPER
Info: 24 CROSSTERM
Info: 577 VDW
Info: 99 VDW_PAIRS
Info: 0 NBTHOLE_PAIRS
Info: STRUCTURE SUMMARY:
Info: 94691 ATOMS
Info: 64925 BONDS
Info: 39725 ANGLES
Info: 14795 DIHEDRALS
Info: 924 IMPROPERS
Info: 337 CROSSTERMS
Info: 0 EXCLUSIONS
Info: 1366 CONSTRAINTS
Info: 91729 RIGID BONDS
Info: 192344 DEGREES OF FREEDOM
Info: 32635 HYDROGEN GROUPS
Info: 4 ATOMS IN LARGEST HYDROGEN GROUP
Info: 32635 MIGRATION GROUPS
Info: 4 ATOMS IN LARGEST MIGRATION GROUP
Info: TOTAL MASS = 579286 amu
Info: TOTAL CHARGE = 3.9041e-06 e
Info: MASS DENSITY = 1.31955 g/cm^3
Info: ATOM DENSITY = 0.129892 atoms/A^3
Info: ADDED 119128 IMPLICIT EXCLUSIONS
Info: NONBONDED TABLE R-SQUARED SPACING: 0.0625
Info: NONBONDED TABLE SIZE: 769 POINTS
Info: REMOVING COM VELOCITY 0 0 0
Info: Updated CUDA force table with 4096 elements.
Info: Updated CUDA LJ table with 577 x 577 elements.
Info: Found 328 unique exclusion lists needing 1068 bytes
TCL: Minimizing for 1000 steps
ETITLE: TS BOND ANGLE DIHED IMPRP ELECT VDW BOUNDARY MISC KINETIC TOTAL TEMP POTENTIAL TOTAL3 TEMPAVG PRESSURE GPRESSURE VOLUME PRESSAVG GPRESSAVG
ENERGY: 0 940.6722 1129.9866 3258.9065 40.5535 -295166.8788 1193401400.0999 0.0102 0.0000 0.0000 1193111603.3500 0.0000 1193111603.3500 1193111603.3500 0.0000 -99.6404 -1246731.5638 729000.0000 -99.6404 -1246731.5638
ENERGY: 200 249.3757 909.3805 3166.3839 41.9780 -336298.0739 653536.0671 13.8020 0.0000 0.0000 321618.9133 0.0000 321618.9133 321618.9133 0.0000 -67.5012 -18943.2171 729000.0000 -67.5012 -18943.2171
ENERGY: 400 283.8405 931.1921 3132.8383 44.3549 -413239.5968 287127.8715 55.9704 0.0000 0.0000 -121663.5292 0.0000 -121663.5292 -121663.5292 0.0000 -77.2791 -29677.9198 729000.0000 -77.2791 -29677.9198
ENERGY: 600 330.3392 955.2978 3119.6600 43.9396 -430310.2531 211904.5916 75.1194 0.0000 0.0000 -213881.3055 0.0000 -213881.3055 -213881.3055 0.0000 -130.1378 -31781.6789 729000.0000 -130.1378 -31781.6789
ENERGY: 800 389.7320 972.3880 3110.3387 43.5059 -435838.5943 183374.8192 83.4716 0.0000 0.0000 -247864.3389 0.0000 -247864.3389 -247864.3389 0.0000 -159.3209 -32515.7651 729000.0000 -159.3209 -32515.7651
ENERGY: 1000 355.2635 971.2640 3103.8050 42.2993 -439874.4770 160904.8332 91.1769 0.0000 0.0000 -274405.8351 0.0000 -274405.8351 -274405.8351 0.0000 -190.4015 -33094.5028 729000.0000 -190.4015 -33094.5028
TCL: Running for 30500 steps
ETITLE: TS BOND ANGLE DIHED IMPRP ELECT VDW BOUNDARY MISC KINETIC TOTAL TEMP POTENTIAL TOTAL3 TEMPAVG PRESSURE GPRESSURE VOLUME PRESSAVG GPRESSAVG
ENERGY: 1000 355.2635 971.2640 3103.8050 42.2993 -439874.4768 160904.8332 91.1769 0.0000 1900.7506 -272505.0843 9.9457 -274405.8350 -272550.5859 9.9457 56076.0980 56119.2349 729000.0000 56076.0980 56119.2349
ENERGY: 7000 942.9571 2360.9180 3386.6442 148.4733 -410165.3896 45642.3011 283.7737 0.0000 13803.1258 -343597.1965 72.2253 -357400.3223 -352169.6926 148.6870 -318.2274 -376.1457 947400.7102 6.3973 5.1515
ENERGY: 13000 946.3326 2520.8501 3380.0423 150.0323 -400586.0606 43322.2279 276.9517 0.0000 25047.6446 -324941.9792 131.0626 -349989.6238 -331399.4074 187.6456 -88.1008 -132.0775 939447.8989 -1.2341 -2.2727
ENERGY: 19000 1011.2446 2726.3901 3402.0585 160.2867 -384289.5419 38835.0810 301.0253 0.0000 36427.1154 -301426.3404 190.6060 -337853.4558 -305454.2389 226.4394 -122.2639 -147.4846 932228.9561 2.8029 2.2126
ENERGY: 25000 1100.6878 2848.7467 3425.8202 180.7402 -366766.1910 34368.1230 256.8830 0.0000 48033.2283 -276551.9618 251.3353 -324585.1901 -278357.4889 264.2664 36.3405 55.3602 927899.4872 1.5043 1.3886
ENERGY: 31000 1082.6831 3074.6046 3515.6059 184.5605 -351383.8101 30632.2313 274.5584 0.0000 57232.3947 -255387.1716 299.4702 -312619.5663 -255205.5895 299.6229 74.6925 115.6888 937434.4285 -0.8161 -0.6756
